12

O	-2.125000000	-1.500000000	-5.250000000
O	-1.250000000	-1.000000000	3.000000000
O	-3.625000000	-3.625000000	0.875000000
N	-2.000000000	-1.500000000	5.125000000
N	-3.750000000	0.375000000	5.375000000
C	3.500000000	3.625000000	-7.125000000
H	2.375000000	-1.375000000	-7.000000000
O	-0.375000000	1.875000000	0.875000000
C	0.750000000	-1.750000000	2.375000000
N	-1.375000000	-3.250000000	-3.500000000
O	-0.500000000	-2.500000000	-1.125000000
C	2.375000000	2.375000000	-3.750000000
