12

C	0.500000000	3.875000000	-6.500000000
O	-3.250000000	0.500000000	3.875000000
O	-1.500000000	2.375000000	5.750000000
C	1.250000000	0.375000000	-4.500000000
H	0.750000000	0.625000000	-1.875000000
N	-3.250000000	1.250000000	-2.875000000
C	2.750000000	3.625000000	-7.125000000
C	1.375000000	1.500000000	-6.125000000
H	1.625000000	0.875000000	-6.000000000
H	2.125000000	-0.125000000	-6.000000000
C	1.875000000	-3.250000000	-0.500000000
N	-0.125000000	-1.250000000	7.875000000
