8

O	-3.750000000	-1.500000000	-2.625000000
O	-3.625000000	-1.250000000	-1.375000000
N	-3.625000000	2.750000000	7.750000000
O	-1.750000000	2.875000000	7.250000000
C	1.000000000	2.375000000	-5.625000000
H	0.250000000	1.000000000	-2.875000000
N	-1.875000000	3.375000000	7.625000000
O	-2.125000000	-0.125000000	6.875000000
