17

N	-0.875000000	0.125000000	-5.125000000
H	1.000000000	-0.375000000	-6.375000000
C	1.375000000	-3.750000000	2.375000000
O	-3.000000000	0.125000000	6.250000000
O	-2.500000000	-2.750000000	5.250000000
N	-2.500000000	3.125000000	3.625000000
C	2.875000000	2.750000000	-4.375000000
O	-0.125000000	-3.750000000	4.000000000
C	3.750000000	-2.125000000	3.875000000
C	0.750000000	-2.125000000	5.375000000
H	0.750000000	0.875000000	6.000000000
O	-1.500000000	1.250000000	-6.375000000
C	1.250000000	-1.250000000	5.750000000
C	0.125000000	-3.250000000	6.500000000
C	3.750000000	-0.625000000	3.125000000
C	0.750000000	0.250000000	5.375000000
C	2.875000000	1.125000000	4.500000000
