8

O	-3.250000000	-0.125000000	-3.375000000
N	-2.375000000	3.000000000	7.375000000
O	-3.000000000	1.375000000	5.875000000
H	1.875000000	3.625000000	-1.750000000
O	-3.625000000	2.000000000	1.625000000
C	1.125000000	-2.375000000	0.875000000
N	-0.125000000	-2.875000000	5.500000000
C	0.500000000	-1.875000000	1.125000000
