17

C	0.750000000	-3.000000000	-3.375000000
O	-1.125000000	3.500000000	4.500000000
O	-2.625000000	-2.875000000	-4.375000000
N	-3.750000000	3.250000000	-5.000000000
C	3.625000000	-3.750000000	4.250000000
C	3.875000000	3.500000000	-7.375000000
O	-3.875000000	-0.000000000	5.375000000
O	-2.000000000	-0.125000000	2.375000000
O	-0.750000000	-3.375000000	-5.750000000
N	-3.125000000	-2.125000000	-3.375000000
N	-0.000000000	-2.625000000	-7.750000000
H	0.875000000	-3.625000000	5.000000000
H	0.875000000	-1.125000000	4.625000000
O	-3.125000000	3.375000000	-0.625000000
O	-3.875000000	2.375000000	-1.500000000
H	3.250000000	0.250000000	0.125000000
O	-0.750000000	1.375000000	-3.375000000
