12

O	-3.375000000	-0.375000000	0.875000000
H	2.875000000	2.625000000	4.875000000
N	-3.500000000	-3.500000000	4.500000000
N	-1.625000000	-3.375000000	-2.125000000
N	-1.375000000	-0.625000000	-5.750000000
N	-0.000000000	0.000000000	2.375000000
C	0.875000000	0.125000000	0.875000000
C	0.250000000	1.875000000	6.000000000
O	-2.750000000	2.875000000	-4.250000000
O	-3.500000000	-1.875000000	-5.750000000
N	-2.000000000	2.750000000	2.625000000
H	1.500000000	1.125000000	3.375000000
