12

H	0.000000000	-0.875000000	-6.125000000
H	3.625000000	-3.875000000	-2.625000000
H	2.625000000	3.125000000	2.125000000
O	-0.625000000	2.500000000	-7.500000000
C	0.000000000	2.875000000	7.750000000
C	3.375000000	-0.875000000	-5.375000000
C	1.000000000	0.375000000	-3.750000000
O	-1.375000000	-0.875000000	-3.000000000
H	2.625000000	1.375000000	-0.625000000
C	3.375000000	3.625000000	-4.125000000
O	-0.375000000	-1.500000000	1.375000000
C	3.500000000	-3.250000000	-5.250000000
