17

O	-3.875000000	-1.000000000	-0.625000000
N	-3.375000000	3.500000000	-1.625000000
O	-0.125000000	-3.000000000	6.500000000
N	-0.250000000	-0.375000000	6.625000000
C	3.125000000	-3.000000000	-6.500000000
O	-3.250000000	-2.250000000	-3.875000000
N	-0.875000000	2.375000000	5.625000000
O	-3.625000000	3.750000000	-7.750000000
O	-0.500000000	-0.750000000	-5.000000000
H	3.500000000	1.750000000	-1.000000000
O	-1.625000000	3.000000000	0.625000000
O	-3.375000000	1.500000000	-7.750000000
C	1.875000000	1.750000000	6.500000000
C	3.625000000	-1.125000000	-4.125000000
N	-0.500000000	0.375000000	1.750000000
O	-1.500000000	-0.000000000	-6.125000000
O	-3.375000000	3.125000000	-5.125000000
