8

C	2.750000000	-0.625000000	-5.625000000
O	-3.000000000	-3.625000000	-4.750000000
O	-2.000000000	2.250000000	5.750000000
O	-1.625000000	2.625000000	1.125000000
H	3.250000000	3.875000000	-1.125000000
H	2.250000000	-2.125000000	-6.000000000
C	0.375000000	-1.750000000	7.750000000
N	-3.625000000	0.750000000	-4.000000000
