8

O	-2.375000000	3.750000000	-0.500000000
N	-2.250000000	-3.500000000	-4.625000000
H	3.500000000	-2.000000000	-2.875000000
N	-0.375000000	-2.750000000	4.500000000
O	-0.250000000	-2.875000000	2.625000000
C	3.875000000	1.875000000	-7.750000000
H	1.125000000	-1.250000000	-3.875000000
H	1.375000000	2.500000000	4.125000000
