17

H	1.250000000	-0.125000000	4.375000000
O	-0.125000000	0.750000000	3.500000000
C	2.125000000	2.250000000	5.625000000
C	1.875000000	3.500000000	-7.500000000
O	-3.125000000	1.750000000	0.125000000
C	1.500000000	-3.625000000	1.125000000
C	1.125000000	-2.000000000	2.875000000
N	-2.625000000	-3.750000000	1.000000000
H	2.375000000	1.500000000	-4.125000000
N	-3.500000000	-0.000000000	-6.500000000
O	-0.250000000	1.125000000	-2.125000000
C	3.375000000	3.750000000	7.750000000
C	0.375000000	-3.250000000	-7.875000000
O	-0.125000000	0.125000000	-2.250000000
C	1.750000000	2.625000000	1.375000000
H	0.125000000	2.375000000	7.250000000
C	3.625000000	-1.375000000	-1.250000000
