17

N	-2.000000000	-1.500000000	-5.125000000
O	-0.125000000	-1.000000000	6.375000000
N	-1.125000000	-3.125000000	-3.875000000
H	0.375000000	-2.625000000	3.000000000
H	3.125000000	2.125000000	-2.000000000
H	2.000000000	-1.000000000	0.375000000
H	3.000000000	-0.500000000	7.375000000
N	-1.625000000	-1.625000000	0.500000000
C	3.250000000	-1.500000000	6.500000000
H	1.625000000	-3.875000000	-3.000000000
C	0.000000000	1.375000000	-6.625000000
C	2.500000000	-0.875000000	4.500000000
O	-3.000000000	-0.625000000	2.750000000
C	2.625000000	-0.375000000	-5.375000000
H	1.500000000	-2.000000000	4.375000000
H	2.250000000	-3.625000000	-3.625000000
H	3.125000000	2.000000000	-3.500000000
