12

N	-2.125000000	-1.875000000	4.750000000
O	-1.250000000	1.625000000	4.500000000
C	2.500000000	-0.375000000	-3.750000000
C	2.000000000	0.875000000	6.125000000
H	1.625000000	2.000000000	-0.250000000
C	0.875000000	0.375000000	-4.000000000
C	2.000000000	2.625000000	2.625000000
C	0.625000000	3.875000000	-1.375000000
N	-2.875000000	-1.250000000	4.375000000
N	-3.875000000	-1.000000000	4.125000000
O	-1.125000000	1.000000000	0.500000000
O	-3.375000000	2.375000000	7.625000000
