8

C	3.250000000	-3.125000000	7.250000000
O	-1.000000000	0.750000000	1.250000000
C	2.500000000	-1.250000000	7.500000000
O	-0.875000000	-1.375000000	7.500000000
H	2.375000000	-2.125000000	5.750000000
C	1.250000000	-0.250000000	3.750000000
H	1.750000000	0.250000000	-1.375000000
N	-3.875000000	2.000000000	-5.250000000
