8

O	-1.375000000	1.875000000	2.250000000
O	-3.375000000	-2.375000000	-2.500000000
H	0.125000000	-3.250000000	-0.750000000
N	-3.000000000	2.250000000	-0.750000000
C	1.125000000	-2.750000000	6.375000000
C	0.000000000	2.750000000	-5.000000000
C	3.625000000	-2.750000000	-3.375000000
O	-3.750000000	2.500000000	-7.750000000
