12

C	1.500000000	3.750000000	3.250000000
N	-0.375000000	-2.000000000	-1.000000000
O	-1.250000000	1.250000000	6.125000000
C	3.125000000	1.625000000	1.375000000
C	3.125000000	-3.125000000	-6.750000000
O	-3.500000000	2.375000000	0.125000000
H	0.750000000	-3.250000000	-3.750000000
O	-1.750000000	0.125000000	4.250000000
H	2.750000000	-0.875000000	7.125000000
O	-3.125000000	-3.125000000	2.125000000
C	2.250000000	2.625000000	-4.000000000
N	-0.875000000	0.250000000	4.000000000
