17

N	-1.250000000	0.375000000	1.500000000
C	1.125000000	-3.625000000	-4.125000000
O	-3.250000000	3.625000000	-1.625000000
N	-1.750000000	-1.750000000	-2.750000000
N	-0.875000000	0.375000000	-6.250000000
O	-2.500000000	1.375000000	2.625000000
O	-1.125000000	-0.625000000	5.125000000
O	-0.750000000	-2.250000000	4.750000000
C	0.250000000	-1.000000000	-5.250000000
O	-3.625000000	-1.250000000	2.375000000
O	-2.125000000	-3.875000000	2.125000000
H	1.875000000	-3.625000000	-2.750000000
H	1.750000000	-1.875000000	5.375000000
N	-0.125000000	-0.625000000	7.125000000
N	-0.500000000	2.375000000	-2.375000000
O	-1.000000000	-0.125000000	3.625000000
C	1.250000000	1.500000000	-3.625000000
