8

O	-0.750000000	3.375000000	7.500000000
C	1.625000000	3.125000000	-3.875000000
O	-1.750000000	0.375000000	0.250000000
O	-1.375000000	-0.875000000	-1.750000000
C	3.875000000	-3.750000000	6.750000000
C	2.500000000	-1.000000000	-7.000000000
H	2.875000000	-2.875000000	-3.125000000
C	3.500000000	1.500000000	5.500000000
