12

N	-0.000000000	3.250000000	4.500000000
C	1.000000000	-1.250000000	-7.125000000
O	-1.375000000	-0.875000000	6.875000000
O	-3.750000000	-2.000000000	2.125000000
O	-2.250000000	1.125000000	-6.500000000
O	-3.625000000	-0.750000000	0.500000000
N	-1.250000000	-3.375000000	7.500000000
C	2.625000000	-1.125000000	7.125000000
C	0.500000000	-2.250000000	1.000000000
C	1.250000000	-1.000000000	-4.250000000
O	-0.875000000	-0.875000000	-0.500000000
N	-2.875000000	-3.250000000	-5.250000000
