12

N	-0.250000000	1.000000000	-5.000000000
C	1.875000000	3.500000000	-4.000000000
H	1.250000000	-3.500000000	-3.375000000
N	-2.875000000	-2.125000000	-1.125000000
C	0.125000000	3.125000000	5.500000000
N	-3.375000000	-2.500000000	5.625000000
N	-2.125000000	-0.500000000	7.750000000
C	1.625000000	3.125000000	-1.125000000
N	-0.375000000	2.250000000	1.250000000
C	0.500000000	-2.750000000	7.250000000
C	3.000000000	-0.750000000	-3.750000000
N	-0.000000000	-0.500000000	-5.375000000
