12

C	2.750000000	-3.750000000	6.875000000
N	-3.125000000	-1.625000000	-1.500000000
O	-1.750000000	3.250000000	-2.375000000
H	0.500000000	-2.625000000	-4.125000000
C	0.375000000	3.250000000	3.625000000
N	-3.125000000	-3.750000000	-3.125000000
O	-0.875000000	1.125000000	4.375000000
N	-2.250000000	2.375000000	-1.625000000
H	0.250000000	3.000000000	4.375000000
C	2.250000000	-1.000000000	-0.250000000
C	1.000000000	0.875000000	-6.375000000
H	2.875000000	0.125000000	7.375000000
