17

N	-2.500000000	-1.125000000	-5.000000000
H	2.750000000	-2.000000000	-7.375000000
C	1.125000000	2.125000000	-2.500000000
O	-1.875000000	0.750000000	0.125000000
O	-0.375000000	0.875000000	5.625000000
C	2.500000000	3.125000000	-2.750000000
C	1.250000000	1.750000000	6.250000000
O	-3.875000000	-0.500000000	-0.000000000
C	3.250000000	-2.625000000	2.375000000
C	2.750000000	2.250000000	5.250000000
C	0.750000000	1.875000000	-1.375000000
C	3.375000000	2.375000000	-5.500000000
O	-1.000000000	2.875000000	-0.375000000
H	2.375000000	-1.875000000	-7.625000000
N	-1.625000000	-2.000000000	2.500000000
C	1.250000000	-3.000000000	1.125000000
C	1.250000000	-2.875000000	-7.375000000
