17

O	-1.125000000	1.125000000	-5.125000000
O	-3.000000000	3.125000000	1.250000000
O	-1.625000000	-0.500000000	-4.750000000
O	-1.125000000	1.500000000	-4.250000000
C	1.625000000	-0.125000000	1.375000000
H	0.000000000	-1.750000000	-0.375000000
N	-1.750000000	1.000000000	-7.125000000
O	-1.375000000	2.375000000	5.125000000
H	2.500000000	0.125000000	-4.875000000
N	-3.875000000	0.625000000	-1.750000000
H	1.375000000	0.750000000	0.000000000
N	-0.000000000	-1.875000000	-4.375000000
H	3.500000000	1.250000000	3.750000000
O	-0.375000000	-3.125000000	-2.500000000
N	-2.875000000	-1.625000000	-3.375000000
C	2.250000000	-3.000000000	2.625000000
H	0.375000000	-1.375000000	7.250000000
