12

C	0.375000000	1.875000000	1.875000000
C	2.625000000	3.500000000	-4.000000000
H	3.500000000	-2.500000000	-7.750000000
C	3.000000000	-3.500000000	5.250000000
O	-2.375000000	3.875000000	5.625000000
O	-0.500000000	-2.375000000	-5.250000000
C	3.000000000	-3.875000000	7.125000000
N	-0.875000000	1.000000000	-5.875000000
O	-1.250000000	-0.875000000	2.375000000
O	-1.000000000	-1.000000000	1.000000000
O	-1.000000000	3.750000000	-7.125000000
H	0.750000000	3.000000000	-1.000000000
