12

C	0.375000000	0.000000000	-2.000000000
C	3.625000000	-3.250000000	-3.000000000
O	-1.250000000	-0.750000000	-1.375000000
C	1.625000000	-0.000000000	3.250000000
H	3.750000000	-3.875000000	-1.000000000
C	0.750000000	0.875000000	-3.625000000
C	3.625000000	3.250000000	-3.875000000
O	-3.750000000	-1.875000000	1.750000000
O	-1.125000000	-2.125000000	-2.750000000
C	3.750000000	-3.500000000	-3.625000000
O	-3.125000000	1.875000000	2.625000000
O	-2.250000000	-3.750000000	-3.125000000
