17

O	-1.125000000	3.875000000	1.750000000
C	3.750000000	-1.250000000	-7.125000000
C	2.500000000	-3.125000000	1.750000000
C	3.625000000	0.250000000	5.375000000
C	3.500000000	-3.500000000	-6.875000000
H	1.375000000	-1.625000000	0.875000000
C	2.250000000	1.250000000	5.750000000
C	1.625000000	-2.250000000	0.000000000
O	-1.875000000	3.000000000	-5.000000000
O	-1.875000000	-2.500000000	-7.125000000
C	0.625000000	0.750000000	4.250000000
N	-1.625000000	-1.000000000	1.375000000
N	-3.000000000	-3.375000000	-3.875000000
N	-1.750000000	0.875000000	-1.750000000
H	0.625000000	2.000000000	5.875000000
O	-3.500000000	-3.500000000	3.000000000
N	-0.000000000	3.750000000	-2.125000000
