12

C	2.250000000	3.000000000	2.125000000
C	2.625000000	-1.250000000	-7.000000000
O	-1.625000000	3.625000000	7.375000000
H	2.750000000	0.875000000	-2.125000000
N	-1.375000000	-0.250000000	0.250000000
O	-3.125000000	-3.500000000	-1.875000000
H	0.750000000	2.750000000	-3.125000000
O	-1.250000000	-1.625000000	-1.500000000
O	-0.000000000	-3.875000000	4.625000000
H	3.750000000	-2.750000000	7.500000000
C	1.375000000	0.000000000	-5.250000000
C	3.125000000	0.500000000	-4.250000000
